7ZZP
  PyMOL2.5          3D                             0

 15 15  0  0  0  0  0  0  0  0999 V2000
   47.0210  -15.2460   41.1470 C   0  0  0  0  0  0  0  0  0  0  0  0
   46.8380  -14.1540   40.1610 C   0  0  0  0  0  0  0  0  0  0  0  0
   47.7820  -13.5910   39.4020 C   0  0  0  0  0  0  0  0  0  0  0  0
   47.4590  -12.5720   38.5190 C   0  0  0  0  0  0  0  0  0  0  0  0
   48.4320  -12.0000   37.7450 O   0  0  0  0  0  0  0  0  0  0  0  0
   46.1600  -12.1400   38.4240 C   0  0  0  0  0  0  0  0  0  0  0  0
   45.1380  -12.7230   39.2200 C   0  0  0  0  0  0  0  0  0  0  0  0
   43.9590  -12.4390   39.2360 O   0  0  0  0  0  0  0  0  0  0  0  0
   45.5370  -13.7450   40.0890 O   0  0  0  0  0  0  0  0  0  0  0  0
   46.1820  -15.4050   41.6180 H   0  0  0  0  0  0  0  0  0  0  0  0
   47.7110  -14.9920   41.7910 H   0  0  0  0  0  0  0  0  0  0  0  0
   47.2940  -16.0620   40.6840 H   0  0  0  0  0  0  0  0  0  0  0  0
   48.6830  -13.8910   39.4690 H   0  0  0  0  0  0  0  0  0  0  0  0
   48.0780  -11.3720   37.2460 H   0  0  0  0  0  0  0  0  0  0  0  0
   45.9340  -11.4390   37.8160 H   0  0  0  0  0  0  0  0  0  0  0  0
  1  2  1  0  0  0  0
  1 10  1  0  0  0  0
  1 11  1  0  0  0  0
  1 12  1  0  0  0  0
  2  3  4  0  0  0  0
  2  9  4  0  0  0  0
  3 13  1  0  0  0  0
  3  4  4  0  0  0  0
  4  5  1  0  0  0  0
  4  6  4  0  0  0  0
  5 14  1  0  0  0  0
  6  7  4  0  0  0  0
  6 15  1  0  0  0  0
  7  8  2  0  0  0  0
  7  9  4  0  0  0  0
M  END
$$$$
